/*--------------------------------*- C++ -*----------------------------------*\
  =========                 |
  \\      /  F ield         | OpenFOAM: The Open Source CFD Toolbox
   \\    /   O peration     | Website:  https://openfoam.org
    \\  /    A nd           | Version:  13
     \\/     M anipulation  |
\*---------------------------------------------------------------------------*/
FoamFile
{
    format      ascii;
    class       dictionary;
    location    "constant";
    object      physicalProperties;
}
// * * * * * * * * * * * * * * * * * * * * * * * * * * * * * * * * * * * * * //

thermoType
{
    type            hePsiThermo;
    mixture         coefficientWilkeMulticomponentMixture;
    transport       sutherland;
    thermo          janaf;
    energy          sensibleEnthalpy;
    equationOfState perfectGas;
    specie          specie;
}

defaultSpecie N2;

species
(
    H
    H2
    O
    OH
    H2O
    CO
    N2
    O2
    HO2
    H2O2
    CO2
    C3H8
);


#include "thermo"
#include "reactions"

// ------------------------------------------------------------------------- //

liquids
{}

solids
{
    // TODO Implement following template of CaCO3 under:
    // src/thermophysicalModels/thermophysicalProperties/solidProperties
    // SiO2;

    CaCO3;
}

// ************************************************************************* //