/*--------------------------------*- C++ -*----------------------------------*\
  =========                 |
  \\      /  F ield         | OpenFOAM: The Open Source CFD Toolbox
   \\    /   O peration     | Website:  https://openfoam.org
    \\  /    A nd           | Version:  13
     \\/     M anipulation  |
\*---------------------------------------------------------------------------*/
FoamFile
{
    format      ascii;
    class       dictionary;
    location    "constant";
    object      radiationProperties;
}
// * * * * * * * * * * * * * * * * * * * * * * * * * * * * * * * * * * * * * //

radiation  on;

solverFreq 10;

// --------------------------------------------------------------------

radiationModel  P1;

// XXX: cannot be used with wedges/cyclic
// radiationModel  fvDOM;
//
// fvDOMCoeffs
// {
//     nPhi        4;    // azimuthal angles in PI/2 on X-Y.(from Y to X)
//     nTheta      0;    // polar angles in PI (from Z to X-Y plane)
//     tolerance   1e-2; // convergence tolerance for radiation iteration
//     maxIter     4;    // maximum number of iterations
// }

// --------------------------------------------------------------------

#include "radiation/fluid"
// #include "radiation/cloud"

// --------------------------------------------------------------------

sootModel  none;

// TODO fix reaction to be able to use this
// sootModel       mixtureFraction;
//
// mixtureFractionCoeffs
// {
//     // CH4 + 2O2 + 7.5N2 = CO2 + 2H2O + 7.5N2 + nuSoot soot
//     nuSoot              0.055;
//     Wsoot               12;
// }

// ************************************************************************* //