/*--------------------------------*- C++ -*----------------------------------*\
  =========                 |
  \\      /  F ield         | OpenFOAM: The Open Source CFD Toolbox
   \\    /   O peration     | Website:  https://openfoam.org
    \\  /    A nd           | Version:  13
     \\/     M anipulation  |
\*---------------------------------------------------------------------------*/
FoamFile
{
    format      ascii;
    class       dictionary;
    location    "chemkin";
    object      transportProperties;
}
// * * * * * * * * * * * * * * * * * * * * * * * * * * * * * * * * * * * * * //

// This file is just a placeholder; OpenFOAM does not currently support the
// conversion of transport properties into Sutherland format. You should do
// that manually elsewhere.

".*"
{
    transport
    {
        As 1.67212e-6;
        Ts 170.672;
    }
}

// ************************************************************************* //